data_acs+N422+E45
_audit_creation_date              2023-02-15
_audit_creation_method            'Materials Studio'
_symmetry_space_group_name_H-M    'P1'
_symmetry_Int_Tables_number       1
_symmetry_cell_setting            triclinic
loop_
_symmetry_equiv_pos_as_xyz
  x,y,z
_cell_length_a                    36.0579
_cell_length_b                    35.9821
_cell_length_c                    28.8248
_cell_angle_alpha                 90.0605
_cell_angle_beta                  89.9335
_cell_angle_gamma                 129.6269
loop_
_atom_site_label
_atom_site_type_symbol
_atom_site_fract_x
_atom_site_fract_y
_atom_site_fract_z
_atom_site_U_iso_or_equiv
_atom_site_adp_type
_atom_site_occupancy
O1     O     0.29157   0.11564   0.04432   0.00000  Uiso   1.00
O2     O     0.32835   0.09616   0.08585   0.00000  Uiso   1.00
O3     O     0.30082   0.20047   0.05674   0.00000  Uiso   1.00
O4     O     0.30722   0.19372  -0.01739   0.00000  Uiso   1.00
O5     O     0.40463   0.17221   0.08566   0.00000  Uiso   1.00
O6     O     0.38448   0.20794   0.04301   0.00000  Uiso   1.00
O7     O     0.29074   0.11657   0.20610   0.00000  Uiso   1.00
O8     O     0.32791   0.09654   0.16607   0.00000  Uiso   1.00
O9     O     0.30013   0.20117   0.19217   0.00000  Uiso   1.00
O10    O     0.30615   0.19448   0.26635   0.00000  Uiso   1.00
O11    O     0.40429   0.17275   0.16618   0.00000  Uiso   1.00
O12    O     0.38354   0.20880   0.20738   0.00000  Uiso   1.00
O13    O     0.33179   0.17082   0.12504   0.00000  Uiso   1.00
C14    C     0.29903   0.08649   0.05393   0.00000  Uiso   1.00
C15    C     0.29413   0.20677   0.01551   0.00000  Uiso   1.00
C16    C     0.41366   0.20064   0.05294   0.00000  Uiso   1.00
Zn17   Zn    0.32696   0.17379   0.06709   0.00000  Uiso   1.00
Zn18   Zn    0.32634   0.17440   0.18277   0.00000  Uiso   1.00
Zn19   Zn    0.35702   0.14411   0.12572   0.00000  Uiso   1.00
H20    H     0.30300   0.19751  -0.04963   0.00000  Uiso   1.00
C21    C     0.29825   0.08727   0.19748   0.00000  Uiso   1.00
C22    C     0.29325   0.20754   0.23333   0.00000  Uiso   1.00
C23    C     0.41293   0.20153   0.19839   0.00000  Uiso   1.00
H24    H     0.30181   0.19829   0.29857   0.00000  Uiso   1.00
O25    O     0.20831   0.38411   0.29291   0.00000  Uiso   1.00
O26    O     0.17217   0.40406   0.33507   0.00000  Uiso   1.00
O27    O     0.20001   0.29994   0.30635   0.00000  Uiso   1.00
O28    O     0.19284   0.30576   0.23222   0.00000  Uiso   1.00
O29    O     0.09624   0.32794   0.33530   0.00000  Uiso   1.00
O30    O     0.11573   0.29126   0.29332   0.00000  Uiso   1.00
O31    O     0.20863   0.38369   0.45686   0.00000  Uiso   1.00
O32    O     0.17236   0.40387   0.41548   0.00000  Uiso   1.00
O33    O     0.20036   0.29957   0.44222   0.00000  Uiso   1.00
O34    O     0.19338   0.30484   0.51653   0.00000  Uiso   1.00
O35    O     0.09637   0.32769   0.41523   0.00000  Uiso   1.00
O36    O     0.11605   0.29081   0.45641   0.00000  Uiso   1.00
O37    O     0.16996   0.33064   0.37477   0.00000  Uiso   1.00
C38    C     0.20100   0.41338   0.30269   0.00000  Uiso   1.00
C39    C     0.20633   0.29318   0.26512   0.00000  Uiso   1.00
C40    C     0.08674   0.29886   0.30307   0.00000  Uiso   1.00
Zn41   Zn    0.17359   0.32633   0.31668   0.00000  Uiso   1.00
Zn42   Zn    0.17385   0.32601   0.43274   0.00000  Uiso   1.00
Zn43   Zn    0.14392   0.35650   0.37514   0.00000  Uiso   1.00
H44    H     0.19673   0.30160   0.19997   0.00000  Uiso   1.00
C45    C     0.20129   0.41301   0.44759   0.00000  Uiso   1.00
C46    C     0.20683   0.29252   0.48324   0.00000  Uiso   1.00
C47    C     0.08703   0.29845   0.44716   0.00000  Uiso   1.00
H48    H     0.19736   0.30048   0.54866   0.00000  Uiso   1.00
N49    N     0.21885   0.48983   0.46579   0.00000  Uiso   1.00
C50    C     0.22641   0.45808   0.47471   0.00000  Uiso   1.00
N51    N     0.25891  -0.03102   0.51152   0.00000  Uiso   1.00
N52    N     0.28120   0.00937   0.03620   0.00000  Uiso   1.00
C53    C     0.27365   0.04114   0.02725   0.00000  Uiso   1.00
N54    N     0.24109   0.53019  -0.00951   0.00000  Uiso   1.00
N55    N     0.23670   0.26317   0.21277   0.00000  Uiso   1.00
C56    C     0.22902   0.27089   0.25665   0.00000  Uiso   1.00
N57    N     0.24258   0.25767   0.29286   0.00000  Uiso   1.00
N58    N     0.26291   0.23761   0.28555   0.00000  Uiso   1.00
C59    C     0.27060   0.22990   0.24169   0.00000  Uiso   1.00
N60    N     0.25705   0.24312   0.20546   0.00000  Uiso   1.00
N61    N    -0.00946   0.21836   0.03544   0.00000  Uiso   1.00
C62    C     0.45867   0.22559   0.02600   0.00000  Uiso   1.00
N63    N     0.46955   0.25792   0.48895   0.00000  Uiso   1.00
N64    N     0.50999   0.28034   0.46451   0.00000  Uiso   1.00
C65    C     0.04188   0.27313   0.47395   0.00000  Uiso   1.00
N66    N     0.03098   0.24074   0.01095   0.00000  Uiso   1.00
N67    N     0.25713   0.46949   0.24118   0.00000  Uiso   1.00
C68    C     0.22597   0.45862   0.27589   0.00000  Uiso   1.00
N69    N     0.21789   0.48992   0.28514   0.00000  Uiso   1.00
N70    N     0.24165   0.03256   0.25907   0.00000  Uiso   1.00
C71    C     0.27250   0.04221   0.22473   0.00000  Uiso   1.00
N72    N     0.27970   0.00998   0.21644   0.00000  Uiso   1.00
N73    N     0.23732   0.26235   0.03493   0.00000  Uiso   1.00
C74    C     0.22963   0.27021   0.49107   0.00000  Uiso   1.00
N75    N     0.24306   0.25731   0.45431   0.00000  Uiso   1.00
N76    N     0.26346   0.23727   0.46072   0.00000  Uiso   1.00
C77    C     0.27148   0.22906   0.00692   0.00000  Uiso   1.00
N78    N     0.25766   0.24237   0.04275   0.00000  Uiso   1.00
N79    N     0.00995   0.28138   0.28637   0.00000  Uiso   1.00
C80    C     0.04143   0.27372   0.27655   0.00000  Uiso   1.00
N81    N     0.03064   0.24280   0.24154   0.00000  Uiso   1.00
N82    N     0.49012   0.22015   0.21700   0.00000  Uiso   1.00
C83    C     0.45772   0.22695   0.22582   0.00000  Uiso   1.00
N84    N     0.46726   0.25751   0.26052   0.00000  Uiso   1.00
O85    O     0.79157   0.11564   0.04432   0.00000  Uiso   1.00
O86    O     0.82835   0.09616   0.08585   0.00000  Uiso   1.00
O87    O     0.80082   0.20047   0.05674   0.00000  Uiso   1.00
O88    O     0.80722   0.19372  -0.01739   0.00000  Uiso   1.00
O89    O     0.90463   0.17221   0.08566   0.00000  Uiso   1.00
O90    O     0.88448   0.20794   0.04301   0.00000  Uiso   1.00
O91    O     0.79074   0.11657   0.20610   0.00000  Uiso   1.00
O92    O     0.82791   0.09654   0.16607   0.00000  Uiso   1.00
O93    O     0.80013   0.20117   0.19217   0.00000  Uiso   1.00
O94    O     0.80615   0.19448   0.26635   0.00000  Uiso   1.00
O95    O     0.90429   0.17275   0.16618   0.00000  Uiso   1.00
O96    O     0.88354   0.20880   0.20738   0.00000  Uiso   1.00
O97    O     0.83179   0.17082   0.12504   0.00000  Uiso   1.00
C98    C     0.79903   0.08649   0.05393   0.00000  Uiso   1.00
C99    C     0.79413   0.20677   0.01551   0.00000  Uiso   1.00
C100   C     0.91366   0.20064   0.05294   0.00000  Uiso   1.00
Zn101  Zn    0.82696   0.17379   0.06709   0.00000  Uiso   1.00
Zn102  Zn    0.82634   0.17440   0.18277   0.00000  Uiso   1.00
Zn103  Zn    0.85702   0.14411   0.12572   0.00000  Uiso   1.00
H104   H     0.80300   0.19751  -0.04963   0.00000  Uiso   1.00
C105   C     0.79825   0.08727   0.19748   0.00000  Uiso   1.00
C106   C     0.79325   0.20754   0.23333   0.00000  Uiso   1.00
C107   C     0.91293   0.20153   0.19839   0.00000  Uiso   1.00
H108   H     0.80181   0.19829   0.29857   0.00000  Uiso   1.00
O109   O     0.70831   0.38411   0.29291   0.00000  Uiso   1.00
O110   O     0.67217   0.40406   0.33507   0.00000  Uiso   1.00
O111   O     0.70001   0.29994   0.30635   0.00000  Uiso   1.00
O112   O     0.69284   0.30576   0.23222   0.00000  Uiso   1.00
O113   O     0.59624   0.32794   0.33530   0.00000  Uiso   1.00
O114   O     0.61573   0.29126   0.29332   0.00000  Uiso   1.00
O115   O     0.70863   0.38369   0.45686   0.00000  Uiso   1.00
O116   O     0.67236   0.40387   0.41548   0.00000  Uiso   1.00
O117   O     0.70036   0.29957   0.44222   0.00000  Uiso   1.00
O118   O     0.69338   0.30484   0.51653   0.00000  Uiso   1.00
O119   O     0.59637   0.32769   0.41523   0.00000  Uiso   1.00
O120   O     0.61605   0.29081   0.45641   0.00000  Uiso   1.00
O121   O     0.66996   0.33064   0.37477   0.00000  Uiso   1.00
C122   C     0.70100   0.41338   0.30269   0.00000  Uiso   1.00
C123   C     0.70633   0.29318   0.26512   0.00000  Uiso   1.00
C124   C     0.58674   0.29886   0.30307   0.00000  Uiso   1.00
Zn125  Zn    0.67359   0.32633   0.31668   0.00000  Uiso   1.00
Zn126  Zn    0.67385   0.32601   0.43274   0.00000  Uiso   1.00
Zn127  Zn    0.64392   0.35650   0.37514   0.00000  Uiso   1.00
H128   H     0.69673   0.30160   0.19997   0.00000  Uiso   1.00
C129   C     0.70129   0.41301   0.44759   0.00000  Uiso   1.00
C130   C     0.70683   0.29252   0.48324   0.00000  Uiso   1.00
C131   C     0.58703   0.29845   0.44716   0.00000  Uiso   1.00
H132   H     0.69736   0.30048   0.54866   0.00000  Uiso   1.00
N133   N     0.71885   0.48983   0.46579   0.00000  Uiso   1.00
C134   C     0.72641   0.45808   0.47471   0.00000  Uiso   1.00
N135   N     0.75891  -0.03102   0.51152   0.00000  Uiso   1.00
N136   N     0.78120   0.00937   0.03620   0.00000  Uiso   1.00
C137   C     0.77365   0.04114   0.02725   0.00000  Uiso   1.00
N138   N     0.74109   0.53019  -0.00951   0.00000  Uiso   1.00
N139   N     0.73670   0.26317   0.21277   0.00000  Uiso   1.00
C140   C     0.72902   0.27089   0.25665   0.00000  Uiso   1.00
N141   N     0.74258   0.25767   0.29286   0.00000  Uiso   1.00
N142   N     0.76291   0.23761   0.28555   0.00000  Uiso   1.00
C143   C     0.77060   0.22990   0.24169   0.00000  Uiso   1.00
N144   N     0.75705   0.24312   0.20546   0.00000  Uiso   1.00
N145   N     0.49054   0.21836   0.03544   0.00000  Uiso   1.00
C146   C     0.95867   0.22559   0.02600   0.00000  Uiso   1.00
N147   N     0.96955   0.25792   0.48895   0.00000  Uiso   1.00
N148   N     1.00999   0.28034   0.46451   0.00000  Uiso   1.00
C149   C     0.54188   0.27313   0.47395   0.00000  Uiso   1.00
N150   N     0.53098   0.24074   0.01095   0.00000  Uiso   1.00
N151   N     0.75713   0.46949   0.24118   0.00000  Uiso   1.00
C152   C     0.72597   0.45862   0.27589   0.00000  Uiso   1.00
N153   N     0.71789   0.48992   0.28514   0.00000  Uiso   1.00
N154   N     0.74165   0.03256   0.25907   0.00000  Uiso   1.00
C155   C     0.77250   0.04221   0.22473   0.00000  Uiso   1.00
N156   N     0.77970   0.00998   0.21644   0.00000  Uiso   1.00
N157   N     0.73732   0.26235   0.03493   0.00000  Uiso   1.00
C158   C     0.72963   0.27021   0.49107   0.00000  Uiso   1.00
N159   N     0.74306   0.25731   0.45431   0.00000  Uiso   1.00
N160   N     0.76346   0.23727   0.46072   0.00000  Uiso   1.00
C161   C     0.77148   0.22906   0.00692   0.00000  Uiso   1.00
N162   N     0.75766   0.24237   0.04275   0.00000  Uiso   1.00
N163   N     0.50995   0.28138   0.28637   0.00000  Uiso   1.00
C164   C     0.54143   0.27372   0.27655   0.00000  Uiso   1.00
N165   N     0.53064   0.24280   0.24154   0.00000  Uiso   1.00
N166   N     0.99012   0.22015   0.21700   0.00000  Uiso   1.00
C167   C     0.95772   0.22695   0.22582   0.00000  Uiso   1.00
N168   N     0.96726   0.25751   0.26052   0.00000  Uiso   1.00
O169   O     0.29157   0.61564   0.04432   0.00000  Uiso   1.00
O170   O     0.32835   0.59616   0.08585   0.00000  Uiso   1.00
O171   O     0.30082   0.70047   0.05674   0.00000  Uiso   1.00
O172   O     0.30722   0.69372  -0.01739   0.00000  Uiso   1.00
O173   O     0.40463   0.67221   0.08566   0.00000  Uiso   1.00
O174   O     0.38448   0.70794   0.04301   0.00000  Uiso   1.00
O175   O     0.29074   0.61657   0.20610   0.00000  Uiso   1.00
O176   O     0.32791   0.59654   0.16607   0.00000  Uiso   1.00
O177   O     0.30013   0.70117   0.19217   0.00000  Uiso   1.00
O178   O     0.30615   0.69448   0.26635   0.00000  Uiso   1.00
O179   O     0.40429   0.67275   0.16618   0.00000  Uiso   1.00
O180   O     0.38354   0.70880   0.20738   0.00000  Uiso   1.00
O181   O     0.33179   0.67082   0.12504   0.00000  Uiso   1.00
C182   C     0.29903   0.58649   0.05393   0.00000  Uiso   1.00
C183   C     0.29413   0.70677   0.01551   0.00000  Uiso   1.00
C184   C     0.41366   0.70064   0.05294   0.00000  Uiso   1.00
Zn185  Zn    0.32696   0.67379   0.06709   0.00000  Uiso   1.00
Zn186  Zn    0.32634   0.67440   0.18277   0.00000  Uiso   1.00
Zn187  Zn    0.35702   0.64411   0.12572   0.00000  Uiso   1.00
H188   H     0.30300   0.69751  -0.04963   0.00000  Uiso   1.00
C189   C     0.29825   0.58727   0.19748   0.00000  Uiso   1.00
C190   C     0.29325   0.70754   0.23333   0.00000  Uiso   1.00
C191   C     0.41293   0.70153   0.19839   0.00000  Uiso   1.00
H192   H     0.30181   0.69829   0.29857   0.00000  Uiso   1.00
O193   O     0.20831   0.88411   0.29291   0.00000  Uiso   1.00
O194   O     0.17217   0.90406   0.33507   0.00000  Uiso   1.00
O195   O     0.20001   0.79994   0.30635   0.00000  Uiso   1.00
O196   O     0.19284   0.80576   0.23222   0.00000  Uiso   1.00
O197   O     0.09624   0.82794   0.33530   0.00000  Uiso   1.00
O198   O     0.11573   0.79126   0.29332   0.00000  Uiso   1.00
O199   O     0.20863   0.88369   0.45686   0.00000  Uiso   1.00
O200   O     0.17236   0.90387   0.41548   0.00000  Uiso   1.00
O201   O     0.20036   0.79957   0.44222   0.00000  Uiso   1.00
O202   O     0.19338   0.80484   0.51653   0.00000  Uiso   1.00
O203   O     0.09637   0.82769   0.41523   0.00000  Uiso   1.00
O204   O     0.11605   0.79081   0.45641   0.00000  Uiso   1.00
O205   O     0.16996   0.83064   0.37477   0.00000  Uiso   1.00
C206   C     0.20100   0.91338   0.30269   0.00000  Uiso   1.00
C207   C     0.20633   0.79318   0.26512   0.00000  Uiso   1.00
C208   C     0.08674   0.79886   0.30307   0.00000  Uiso   1.00
Zn209  Zn    0.17359   0.82633   0.31668   0.00000  Uiso   1.00
Zn210  Zn    0.17385   0.82601   0.43274   0.00000  Uiso   1.00
Zn211  Zn    0.14392   0.85650   0.37514   0.00000  Uiso   1.00
H212   H     0.19673   0.80160   0.19997   0.00000  Uiso   1.00
C213   C     0.20129   0.91301   0.44759   0.00000  Uiso   1.00
C214   C     0.20683   0.79252   0.48324   0.00000  Uiso   1.00
C215   C     0.08703   0.79845   0.44716   0.00000  Uiso   1.00
H216   H     0.19736   0.80048   0.54866   0.00000  Uiso   1.00
N217   N     0.21885   0.98983   0.46579   0.00000  Uiso   1.00
C218   C     0.22641   0.95808   0.47471   0.00000  Uiso   1.00
N219   N     0.25891   0.46898   0.51152   0.00000  Uiso   1.00
N220   N     0.28120   0.50937   0.03620   0.00000  Uiso   1.00
C221   C     0.27365   0.54114   0.02725   0.00000  Uiso   1.00
N222   N     0.24109   1.03019  -0.00951   0.00000  Uiso   1.00
N223   N     0.23670   0.76317   0.21277   0.00000  Uiso   1.00
C224   C     0.22902   0.77089   0.25665   0.00000  Uiso   1.00
N225   N     0.24258   0.75767   0.29286   0.00000  Uiso   1.00
N226   N     0.26291   0.73761   0.28555   0.00000  Uiso   1.00
C227   C     0.27060   0.72990   0.24169   0.00000  Uiso   1.00
N228   N     0.25705   0.74312   0.20546   0.00000  Uiso   1.00
N229   N    -0.00946   0.71836   0.03544   0.00000  Uiso   1.00
C230   C     0.45867   0.72559   0.02600   0.00000  Uiso   1.00
N231   N     0.46955   0.75792   0.48895   0.00000  Uiso   1.00
N232   N     0.50999   0.78034   0.46451   0.00000  Uiso   1.00
C233   C     0.04188   0.77313   0.47395   0.00000  Uiso   1.00
N234   N     0.03098   0.74074   0.01095   0.00000  Uiso   1.00
N235   N     0.25713   0.96949   0.24118   0.00000  Uiso   1.00
C236   C     0.22597   0.95862   0.27589   0.00000  Uiso   1.00
N237   N     0.21789   0.98992   0.28514   0.00000  Uiso   1.00
N238   N     0.24165   0.53256   0.25907   0.00000  Uiso   1.00
C239   C     0.27250   0.54221   0.22473   0.00000  Uiso   1.00
N240   N     0.27970   0.50998   0.21644   0.00000  Uiso   1.00
N241   N     0.23732   0.76235   0.03493   0.00000  Uiso   1.00
C242   C     0.22963   0.77021   0.49107   0.00000  Uiso   1.00
N243   N     0.24306   0.75731   0.45431   0.00000  Uiso   1.00
N244   N     0.26346   0.73727   0.46072   0.00000  Uiso   1.00
C245   C     0.27148   0.72906   0.00692   0.00000  Uiso   1.00
N246   N     0.25766   0.74237   0.04275   0.00000  Uiso   1.00
N247   N     0.00995   0.78138   0.28637   0.00000  Uiso   1.00
C248   C     0.04143   0.77372   0.27655   0.00000  Uiso   1.00
N249   N     0.03064   0.74280   0.24154   0.00000  Uiso   1.00
N250   N     0.49012   0.72015   0.21700   0.00000  Uiso   1.00
C251   C     0.45772   0.72695   0.22582   0.00000  Uiso   1.00
N252   N     0.46726   0.75751   0.26052   0.00000  Uiso   1.00
O253   O     0.79157   0.61564   0.04432   0.00000  Uiso   1.00
O254   O     0.82835   0.59616   0.08585   0.00000  Uiso   1.00
O255   O     0.80082   0.70047   0.05674   0.00000  Uiso   1.00
O256   O     0.80722   0.69372  -0.01739   0.00000  Uiso   1.00
O257   O     0.90463   0.67221   0.08566   0.00000  Uiso   1.00
O258   O     0.88448   0.70794   0.04301   0.00000  Uiso   1.00
O259   O     0.79074   0.61657   0.20610   0.00000  Uiso   1.00
O260   O     0.82791   0.59654   0.16607   0.00000  Uiso   1.00
O261   O     0.80013   0.70117   0.19217   0.00000  Uiso   1.00
O262   O     0.80615   0.69448   0.26635   0.00000  Uiso   1.00
O263   O     0.90429   0.67275   0.16618   0.00000  Uiso   1.00
O264   O     0.88354   0.70880   0.20738   0.00000  Uiso   1.00
O265   O     0.83179   0.67082   0.12504   0.00000  Uiso   1.00
C266   C     0.79903   0.58649   0.05393   0.00000  Uiso   1.00
C267   C     0.79413   0.70677   0.01551   0.00000  Uiso   1.00
C268   C     0.91366   0.70064   0.05294   0.00000  Uiso   1.00
Zn269  Zn    0.82696   0.67379   0.06709   0.00000  Uiso   1.00
Zn270  Zn    0.82634   0.67440   0.18277   0.00000  Uiso   1.00
Zn271  Zn    0.85702   0.64411   0.12572   0.00000  Uiso   1.00
H272   H     0.80300   0.69751  -0.04963   0.00000  Uiso   1.00
C273   C     0.79825   0.58727   0.19748   0.00000  Uiso   1.00
C274   C     0.79325   0.70754   0.23333   0.00000  Uiso   1.00
C275   C     0.91293   0.70153   0.19839   0.00000  Uiso   1.00
H276   H     0.80181   0.69829   0.29857   0.00000  Uiso   1.00
O277   O     0.70831   0.88411   0.29291   0.00000  Uiso   1.00
O278   O     0.67217   0.90406   0.33507   0.00000  Uiso   1.00
O279   O     0.70001   0.79994   0.30635   0.00000  Uiso   1.00
O280   O     0.69284   0.80576   0.23222   0.00000  Uiso   1.00
O281   O     0.59624   0.82794   0.33530   0.00000  Uiso   1.00
O282   O     0.61573   0.79126   0.29332   0.00000  Uiso   1.00
O283   O     0.70863   0.88369   0.45686   0.00000  Uiso   1.00
O284   O     0.67236   0.90387   0.41548   0.00000  Uiso   1.00
O285   O     0.70036   0.79957   0.44222   0.00000  Uiso   1.00
O286   O     0.69338   0.80484   0.51653   0.00000  Uiso   1.00
O287   O     0.59637   0.82769   0.41523   0.00000  Uiso   1.00
O288   O     0.61605   0.79081   0.45641   0.00000  Uiso   1.00
O289   O     0.66996   0.83064   0.37477   0.00000  Uiso   1.00
C290   C     0.70100   0.91338   0.30269   0.00000  Uiso   1.00
C291   C     0.70633   0.79318   0.26512   0.00000  Uiso   1.00
C292   C     0.58674   0.79886   0.30307   0.00000  Uiso   1.00
Zn293  Zn    0.67359   0.82633   0.31668   0.00000  Uiso   1.00
Zn294  Zn    0.67385   0.82601   0.43274   0.00000  Uiso   1.00
Zn295  Zn    0.64392   0.85650   0.37514   0.00000  Uiso   1.00
H296   H     0.69673   0.80160   0.19997   0.00000  Uiso   1.00
C297   C     0.70129   0.91301   0.44759   0.00000  Uiso   1.00
C298   C     0.70683   0.79252   0.48324   0.00000  Uiso   1.00
C299   C     0.58703   0.79845   0.44716   0.00000  Uiso   1.00
H300   H     0.69736   0.80048   0.54866   0.00000  Uiso   1.00
N301   N     0.71885   0.98983   0.46579   0.00000  Uiso   1.00
C302   C     0.72641   0.95808   0.47471   0.00000  Uiso   1.00
N303   N     0.75891   0.46898   0.51152   0.00000  Uiso   1.00
N304   N     0.78120   0.50937   0.03620   0.00000  Uiso   1.00
C305   C     0.77365   0.54114   0.02725   0.00000  Uiso   1.00
N306   N     0.74109   1.03019  -0.00951   0.00000  Uiso   1.00
N307   N     0.73670   0.76317   0.21277   0.00000  Uiso   1.00
C308   C     0.72902   0.77089   0.25665   0.00000  Uiso   1.00
N309   N     0.74258   0.75767   0.29286   0.00000  Uiso   1.00
N310   N     0.76291   0.73761   0.28555   0.00000  Uiso   1.00
C311   C     0.77060   0.72990   0.24169   0.00000  Uiso   1.00
N312   N     0.75705   0.74312   0.20546   0.00000  Uiso   1.00
N313   N     0.49054   0.71836   0.03544   0.00000  Uiso   1.00
C314   C     0.95867   0.72559   0.02600   0.00000  Uiso   1.00
N315   N     0.96955   0.75792   0.48895   0.00000  Uiso   1.00
N316   N     1.00999   0.78034   0.46451   0.00000  Uiso   1.00
C317   C     0.54188   0.77313   0.47395   0.00000  Uiso   1.00
N318   N     0.53098   0.74074   0.01095   0.00000  Uiso   1.00
N319   N     0.75713   0.96949   0.24118   0.00000  Uiso   1.00
C320   C     0.72597   0.95862   0.27589   0.00000  Uiso   1.00
N321   N     0.71789   0.98992   0.28514   0.00000  Uiso   1.00
N322   N     0.74165   0.53256   0.25907   0.00000  Uiso   1.00
C323   C     0.77250   0.54221   0.22473   0.00000  Uiso   1.00
N324   N     0.77970   0.50998   0.21644   0.00000  Uiso   1.00
N325   N     0.73732   0.76235   0.03493   0.00000  Uiso   1.00
C326   C     0.72963   0.77021   0.49107   0.00000  Uiso   1.00
N327   N     0.74306   0.75731   0.45431   0.00000  Uiso   1.00
N328   N     0.76346   0.73727   0.46072   0.00000  Uiso   1.00
C329   C     0.77148   0.72906   0.00692   0.00000  Uiso   1.00
N330   N     0.75766   0.74237   0.04275   0.00000  Uiso   1.00
N331   N     0.50995   0.78138   0.28637   0.00000  Uiso   1.00
C332   C     0.54143   0.77372   0.27655   0.00000  Uiso   1.00
N333   N     0.53064   0.74280   0.24154   0.00000  Uiso   1.00
N334   N     0.99012   0.72015   0.21700   0.00000  Uiso   1.00
C335   C     0.95772   0.72695   0.22582   0.00000  Uiso   1.00
N336   N     0.96726   0.75751   0.26052   0.00000  Uiso   1.00
O337   O     0.29157   0.11564   0.54432   0.00000  Uiso   1.00
O338   O     0.32835   0.09616   0.58585   0.00000  Uiso   1.00
O339   O     0.30082   0.20047   0.55674   0.00000  Uiso   1.00
O340   O     0.30722   0.19372   0.48261   0.00000  Uiso   1.00
O341   O     0.40463   0.17221   0.58566   0.00000  Uiso   1.00
O342   O     0.38448   0.20794   0.54301   0.00000  Uiso   1.00
O343   O     0.29074   0.11657   0.70610   0.00000  Uiso   1.00
O344   O     0.32791   0.09654   0.66607   0.00000  Uiso   1.00
O345   O     0.30013   0.20117   0.69217   0.00000  Uiso   1.00
O346   O     0.30615   0.19448   0.76635   0.00000  Uiso   1.00
O347   O     0.40429   0.17275   0.66618   0.00000  Uiso   1.00
O348   O     0.38354   0.20880   0.70738   0.00000  Uiso   1.00
O349   O     0.33179   0.17082   0.62504   0.00000  Uiso   1.00
C350   C     0.29903   0.08649   0.55393   0.00000  Uiso   1.00
C351   C     0.29413   0.20677   0.51551   0.00000  Uiso   1.00
C352   C     0.41366   0.20064   0.55294   0.00000  Uiso   1.00
Zn353  Zn    0.32696   0.17379   0.56709   0.00000  Uiso   1.00
Zn354  Zn    0.32634   0.17440   0.68277   0.00000  Uiso   1.00
Zn355  Zn    0.35702   0.14411   0.62572   0.00000  Uiso   1.00
H356   H     0.30300   0.19751   0.45037   0.00000  Uiso   1.00
C357   C     0.29825   0.08727   0.69748   0.00000  Uiso   1.00
C358   C     0.29325   0.20754   0.73333   0.00000  Uiso   1.00
C359   C     0.41293   0.20153   0.69839   0.00000  Uiso   1.00
H360   H     0.30181   0.19829   0.79857   0.00000  Uiso   1.00
O361   O     0.20831   0.38411   0.79291   0.00000  Uiso   1.00
O362   O     0.17217   0.40406   0.83507   0.00000  Uiso   1.00
O363   O     0.20001   0.29994   0.80635   0.00000  Uiso   1.00
O364   O     0.19284   0.30576   0.73222   0.00000  Uiso   1.00
O365   O     0.09624   0.32794   0.83530   0.00000  Uiso   1.00
O366   O     0.11573   0.29126   0.79332   0.00000  Uiso   1.00
O367   O     0.20863   0.38369   0.95686   0.00000  Uiso   1.00
O368   O     0.17236   0.40387   0.91548   0.00000  Uiso   1.00
O369   O     0.20036   0.29957   0.94222   0.00000  Uiso   1.00
O370   O     0.19338   0.30484   1.01653   0.00000  Uiso   1.00
O371   O     0.09637   0.32769   0.91523   0.00000  Uiso   1.00
O372   O     0.11605   0.29081   0.95641   0.00000  Uiso   1.00
O373   O     0.16996   0.33064   0.87477   0.00000  Uiso   1.00
C374   C     0.20100   0.41338   0.80269   0.00000  Uiso   1.00
C375   C     0.20633   0.29318   0.76512   0.00000  Uiso   1.00
C376   C     0.08674   0.29886   0.80307   0.00000  Uiso   1.00
Zn377  Zn    0.17359   0.32633   0.81668   0.00000  Uiso   1.00
Zn378  Zn    0.17385   0.32601   0.93274   0.00000  Uiso   1.00
Zn379  Zn    0.14392   0.35650   0.87514   0.00000  Uiso   1.00
H380   H     0.19673   0.30160   0.69997   0.00000  Uiso   1.00
C381   C     0.20129   0.41301   0.94759   0.00000  Uiso   1.00
C382   C     0.20683   0.29252   0.98324   0.00000  Uiso   1.00
C383   C     0.08703   0.29845   0.94716   0.00000  Uiso   1.00
H384   H     0.19736   0.30048   1.04866   0.00000  Uiso   1.00
N385   N     0.21885   0.48983   0.96579   0.00000  Uiso   1.00
C386   C     0.22641   0.45808   0.97471   0.00000  Uiso   1.00
N387   N     0.25891  -0.03102   1.01152   0.00000  Uiso   1.00
N388   N     0.28120   0.00937   0.53620   0.00000  Uiso   1.00
C389   C     0.27365   0.04114   0.52725   0.00000  Uiso   1.00
N390   N     0.24109   0.53019   0.49049   0.00000  Uiso   1.00
N391   N     0.23670   0.26317   0.71277   0.00000  Uiso   1.00
C392   C     0.22902   0.27089   0.75665   0.00000  Uiso   1.00
N393   N     0.24258   0.25767   0.79286   0.00000  Uiso   1.00
N394   N     0.26291   0.23761   0.78555   0.00000  Uiso   1.00
C395   C     0.27060   0.22990   0.74169   0.00000  Uiso   1.00
N396   N     0.25705   0.24312   0.70546   0.00000  Uiso   1.00
N397   N    -0.00946   0.21836   0.53544   0.00000  Uiso   1.00
C398   C     0.45867   0.22559   0.52600   0.00000  Uiso   1.00
N399   N     0.46955   0.25792   0.98895   0.00000  Uiso   1.00
N400   N     0.50999   0.28034   0.96451   0.00000  Uiso   1.00
C401   C     0.04188   0.27313   0.97395   0.00000  Uiso   1.00
N402   N     0.03098   0.24074   0.51095   0.00000  Uiso   1.00
N403   N     0.25713   0.46949   0.74118   0.00000  Uiso   1.00
C404   C     0.22597   0.45862   0.77589   0.00000  Uiso   1.00
N405   N     0.21789   0.48992   0.78514   0.00000  Uiso   1.00
N406   N     0.24165   0.03256   0.75907   0.00000  Uiso   1.00
C407   C     0.27250   0.04221   0.72473   0.00000  Uiso   1.00
N408   N     0.27970   0.00998   0.71644   0.00000  Uiso   1.00
N409   N     0.23732   0.26235   0.53493   0.00000  Uiso   1.00
C410   C     0.22963   0.27021   0.99107   0.00000  Uiso   1.00
N411   N     0.24306   0.25731   0.95431   0.00000  Uiso   1.00
N412   N     0.26346   0.23727   0.96072   0.00000  Uiso   1.00
C413   C     0.27148   0.22906   0.50692   0.00000  Uiso   1.00
N414   N     0.25766   0.24237   0.54275   0.00000  Uiso   1.00
N415   N     0.00995   0.28138   0.78637   0.00000  Uiso   1.00
C416   C     0.04143   0.27372   0.77655   0.00000  Uiso   1.00
N417   N     0.03064   0.24280   0.74154   0.00000  Uiso   1.00
N418   N     0.49012   0.22015   0.71700   0.00000  Uiso   1.00
C419   C     0.45772   0.22695   0.72582   0.00000  Uiso   1.00
N420   N     0.46726   0.25751   0.76052   0.00000  Uiso   1.00
O421   O     0.79157   0.11564   0.54432   0.00000  Uiso   1.00
O422   O     0.82835   0.09616   0.58585   0.00000  Uiso   1.00
O423   O     0.80082   0.20047   0.55674   0.00000  Uiso   1.00
O424   O     0.80722   0.19372   0.48261   0.00000  Uiso   1.00
O425   O     0.90463   0.17221   0.58566   0.00000  Uiso   1.00
O426   O     0.88448   0.20794   0.54301   0.00000  Uiso   1.00
O427   O     0.79074   0.11657   0.70610   0.00000  Uiso   1.00
O428   O     0.82791   0.09654   0.66607   0.00000  Uiso   1.00
O429   O     0.80013   0.20116   0.69217   0.00000  Uiso   1.00
O430   O     0.80615   0.19448   0.76635   0.00000  Uiso   1.00
O431   O     0.90429   0.17275   0.66618   0.00000  Uiso   1.00
O432   O     0.88354   0.20880   0.70738   0.00000  Uiso   1.00
O433   O     0.83179   0.17082   0.62504   0.00000  Uiso   1.00
C434   C     0.79903   0.08649   0.55393   0.00000  Uiso   1.00
C435   C     0.79413   0.20677   0.51551   0.00000  Uiso   1.00
C436   C     0.91366   0.20064   0.55294   0.00000  Uiso   1.00
Zn437  Zn    0.82696   0.17379   0.56709   0.00000  Uiso   1.00
Zn438  Zn    0.82634   0.17440   0.68277   0.00000  Uiso   1.00
Zn439  Zn    0.85702   0.14411   0.62572   0.00000  Uiso   1.00
H440   H     0.80300   0.19751   0.45037   0.00000  Uiso   1.00
C441   C     0.79825   0.08727   0.69748   0.00000  Uiso   1.00
C442   C     0.79325   0.20754   0.73333   0.00000  Uiso   1.00
C443   C     0.91293   0.20153   0.69839   0.00000  Uiso   1.00
H444   H     0.80181   0.19829   0.79857   0.00000  Uiso   1.00
O445   O     0.70831   0.38411   0.79291   0.00000  Uiso   1.00
O446   O     0.67217   0.40406   0.83507   0.00000  Uiso   1.00
O447   O     0.70001   0.29994   0.80635   0.00000  Uiso   1.00
O448   O     0.69284   0.30576   0.73222   0.00000  Uiso   1.00
O449   O     0.59624   0.32794   0.83530   0.00000  Uiso   1.00
O450   O     0.61573   0.29126   0.79332   0.00000  Uiso   1.00
O451   O     0.70863   0.38369   0.95686   0.00000  Uiso   1.00
O452   O     0.67236   0.40387   0.91548   0.00000  Uiso   1.00
O453   O     0.70036   0.29957   0.94222   0.00000  Uiso   1.00
O454   O     0.69338   0.30484   1.01653   0.00000  Uiso   1.00
O455   O     0.59637   0.32769   0.91523   0.00000  Uiso   1.00
O456   O     0.61605   0.29081   0.95641   0.00000  Uiso   1.00
O457   O     0.66996   0.33064   0.87477   0.00000  Uiso   1.00
C458   C     0.70100   0.41338   0.80269   0.00000  Uiso   1.00
C459   C     0.70633   0.29318   0.76512   0.00000  Uiso   1.00
C460   C     0.58674   0.29886   0.80307   0.00000  Uiso   1.00
Zn461  Zn    0.67359   0.32633   0.81668   0.00000  Uiso   1.00
Zn462  Zn    0.67385   0.32601   0.93274   0.00000  Uiso   1.00
Zn463  Zn    0.64392   0.35650   0.87514   0.00000  Uiso   1.00
H464   H     0.69673   0.30160   0.69997   0.00000  Uiso   1.00
C465   C     0.70129   0.41301   0.94759   0.00000  Uiso   1.00
C466   C     0.70683   0.29252   0.98324   0.00000  Uiso   1.00
C467   C     0.58703   0.29845   0.94716   0.00000  Uiso   1.00
H468   H     0.69736   0.30048   1.04866   0.00000  Uiso   1.00
N469   N     0.71885   0.48983   0.96579   0.00000  Uiso   1.00
C470   C     0.72641   0.45808   0.97471   0.00000  Uiso   1.00
N471   N     0.75891  -0.03102   1.01152   0.00000  Uiso   1.00
N472   N     0.78120   0.00937   0.53620   0.00000  Uiso   1.00
C473   C     0.77365   0.04114   0.52725   0.00000  Uiso   1.00
N474   N     0.74109   0.53019   0.49049   0.00000  Uiso   1.00
N475   N     0.73670   0.26317   0.71277   0.00000  Uiso   1.00
C476   C     0.72902   0.27089   0.75665   0.00000  Uiso   1.00
N477   N     0.74258   0.25767   0.79286   0.00000  Uiso   1.00
N478   N     0.76291   0.23761   0.78555   0.00000  Uiso   1.00
C479   C     0.77060   0.22989   0.74169   0.00000  Uiso   1.00
N480   N     0.75705   0.24312   0.70546   0.00000  Uiso   1.00
N481   N     0.49054   0.21836   0.53544   0.00000  Uiso   1.00
C482   C     0.95867   0.22559   0.52600   0.00000  Uiso   1.00
N483   N     0.96955   0.25792   0.98895   0.00000  Uiso   1.00
N484   N     1.00999   0.28034   0.96451   0.00000  Uiso   1.00
C485   C     0.54188   0.27313   0.97395   0.00000  Uiso   1.00
N486   N     0.53098   0.24074   0.51095   0.00000  Uiso   1.00
N487   N     0.75713   0.46949   0.74118   0.00000  Uiso   1.00
C488   C     0.72597   0.45862   0.77589   0.00000  Uiso   1.00
N489   N     0.71789   0.48992   0.78514   0.00000  Uiso   1.00
N490   N     0.74165   0.03256   0.75907   0.00000  Uiso   1.00
C491   C     0.77250   0.04221   0.72473   0.00000  Uiso   1.00
N492   N     0.77970   0.00998   0.71644   0.00000  Uiso   1.00
N493   N     0.73732   0.26235   0.53493   0.00000  Uiso   1.00
C494   C     0.72963   0.27021   0.99107   0.00000  Uiso   1.00
N495   N     0.74306   0.25731   0.95431   0.00000  Uiso   1.00
N496   N     0.76346   0.23727   0.96072   0.00000  Uiso   1.00
C497   C     0.77148   0.22906   0.50692   0.00000  Uiso   1.00
N498   N     0.75766   0.24237   0.54275   0.00000  Uiso   1.00
N499   N     0.50995   0.28138   0.78637   0.00000  Uiso   1.00
C500   C     0.54143   0.27372   0.77655   0.00000  Uiso   1.00
N501   N     0.53064   0.24280   0.74154   0.00000  Uiso   1.00
N502   N     0.99012   0.22015   0.71700   0.00000  Uiso   1.00
C503   C     0.95772   0.22695   0.72582   0.00000  Uiso   1.00
N504   N     0.96726   0.25751   0.76052   0.00000  Uiso   1.00
O505   O     0.29157   0.61564   0.54432   0.00000  Uiso   1.00
O506   O     0.32835   0.59616   0.58585   0.00000  Uiso   1.00
O507   O     0.30082   0.70047   0.55674   0.00000  Uiso   1.00
O508   O     0.30722   0.69372   0.48261   0.00000  Uiso   1.00
O509   O     0.40463   0.67221   0.58566   0.00000  Uiso   1.00
O510   O     0.38448   0.70794   0.54301   0.00000  Uiso   1.00
O511   O     0.29074   0.61657   0.70610   0.00000  Uiso   1.00
O512   O     0.32791   0.59654   0.66607   0.00000  Uiso   1.00
O513   O     0.30013   0.70117   0.69217   0.00000  Uiso   1.00
O514   O     0.30615   0.69448   0.76635   0.00000  Uiso   1.00
O515   O     0.40429   0.67275   0.66618   0.00000  Uiso   1.00
O516   O     0.38354   0.70880   0.70738   0.00000  Uiso   1.00
O517   O     0.33179   0.67082   0.62504   0.00000  Uiso   1.00
C518   C     0.29903   0.58649   0.55393   0.00000  Uiso   1.00
C519   C     0.29413   0.70677   0.51551   0.00000  Uiso   1.00
C520   C     0.41366   0.70064   0.55294   0.00000  Uiso   1.00
Zn521  Zn    0.32696   0.67379   0.56709   0.00000  Uiso   1.00
Zn522  Zn    0.32634   0.67440   0.68277   0.00000  Uiso   1.00
Zn523  Zn    0.35702   0.64411   0.62572   0.00000  Uiso   1.00
H524   H     0.30300   0.69751   0.45037   0.00000  Uiso   1.00
C525   C     0.29825   0.58727   0.69748   0.00000  Uiso   1.00
C526   C     0.29325   0.70754   0.73333   0.00000  Uiso   1.00
C527   C     0.41293   0.70153   0.69839   0.00000  Uiso   1.00
H528   H     0.30181   0.69829   0.79857   0.00000  Uiso   1.00
O529   O     0.20831   0.88411   0.79291   0.00000  Uiso   1.00
O530   O     0.17217   0.90406   0.83507   0.00000  Uiso   1.00
O531   O     0.20001   0.79994   0.80635   0.00000  Uiso   1.00
O532   O     0.19284   0.80576   0.73222   0.00000  Uiso   1.00
O533   O     0.09624   0.82794   0.83530   0.00000  Uiso   1.00
O534   O     0.11573   0.79126   0.79332   0.00000  Uiso   1.00
O535   O     0.20863   0.88369   0.95686   0.00000  Uiso   1.00
O536   O     0.17236   0.90387   0.91548   0.00000  Uiso   1.00
O537   O     0.20036   0.79957   0.94222   0.00000  Uiso   1.00
O538   O     0.19338   0.80484   1.01653   0.00000  Uiso   1.00
O539   O     0.09637   0.82769   0.91523   0.00000  Uiso   1.00
O540   O     0.11605   0.79081   0.95641   0.00000  Uiso   1.00
O541   O     0.16996   0.83064   0.87477   0.00000  Uiso   1.00
C542   C     0.20100   0.91338   0.80269   0.00000  Uiso   1.00
C543   C     0.20633   0.79318   0.76512   0.00000  Uiso   1.00
C544   C     0.08674   0.79886   0.80307   0.00000  Uiso   1.00
Zn545  Zn    0.17359   0.82633   0.81668   0.00000  Uiso   1.00
Zn546  Zn    0.17385   0.82601   0.93274   0.00000  Uiso   1.00
Zn547  Zn    0.14392   0.85650   0.87514   0.00000  Uiso   1.00
H548   H     0.19673   0.80160   0.69997   0.00000  Uiso   1.00
C549   C     0.20129   0.91301   0.94759   0.00000  Uiso   1.00
C550   C     0.20683   0.79252   0.98324   0.00000  Uiso   1.00
C551   C     0.08703   0.79845   0.94716   0.00000  Uiso   1.00
H552   H     0.19736   0.80048   1.04866   0.00000  Uiso   1.00
N553   N     0.21885   0.98983   0.96579   0.00000  Uiso   1.00
C554   C     0.22641   0.95808   0.97471   0.00000  Uiso   1.00
N555   N     0.25891   0.46898   1.01152   0.00000  Uiso   1.00
N556   N     0.28120   0.50937   0.53620   0.00000  Uiso   1.00
C557   C     0.27365   0.54114   0.52725   0.00000  Uiso   1.00
N558   N     0.24109   1.03019   0.49049   0.00000  Uiso   1.00
N559   N     0.23670   0.76317   0.71277   0.00000  Uiso   1.00
C560   C     0.22902   0.77089   0.75665   0.00000  Uiso   1.00
N561   N     0.24258   0.75767   0.79286   0.00000  Uiso   1.00
N562   N     0.26291   0.73761   0.78555   0.00000  Uiso   1.00
C563   C     0.27060   0.72990   0.74169   0.00000  Uiso   1.00
N564   N     0.25705   0.74312   0.70546   0.00000  Uiso   1.00
N565   N    -0.00946   0.71836   0.53544   0.00000  Uiso   1.00
C566   C     0.45867   0.72559   0.52600   0.00000  Uiso   1.00
N567   N     0.46955   0.75792   0.98895   0.00000  Uiso   1.00
N568   N     0.50999   0.78034   0.96451   0.00000  Uiso   1.00
C569   C     0.04188   0.77313   0.97395   0.00000  Uiso   1.00
N570   N     0.03098   0.74074   0.51095   0.00000  Uiso   1.00
N571   N     0.25713   0.96949   0.74118   0.00000  Uiso   1.00
C572   C     0.22597   0.95862   0.77589   0.00000  Uiso   1.00
N573   N     0.21789   0.98992   0.78514   0.00000  Uiso   1.00
N574   N     0.24165   0.53256   0.75907   0.00000  Uiso   1.00
C575   C     0.27250   0.54221   0.72473   0.00000  Uiso   1.00
N576   N     0.27970   0.50998   0.71644   0.00000  Uiso   1.00
N577   N     0.23732   0.76235   0.53493   0.00000  Uiso   1.00
C578   C     0.22963   0.77021   0.99107   0.00000  Uiso   1.00
N579   N     0.24306   0.75731   0.95431   0.00000  Uiso   1.00
N580   N     0.26346   0.73727   0.96072   0.00000  Uiso   1.00
C581   C     0.27148   0.72906   0.50692   0.00000  Uiso   1.00
N582   N     0.25766   0.74237   0.54275   0.00000  Uiso   1.00
N583   N     0.00995   0.78138   0.78637   0.00000  Uiso   1.00
C584   C     0.04143   0.77372   0.77655   0.00000  Uiso   1.00
N585   N     0.03064   0.74280   0.74154   0.00000  Uiso   1.00
N586   N     0.49012   0.72015   0.71700   0.00000  Uiso   1.00
C587   C     0.45772   0.72695   0.72582   0.00000  Uiso   1.00
N588   N     0.46726   0.75751   0.76052   0.00000  Uiso   1.00
O589   O     0.79157   0.61564   0.54432   0.00000  Uiso   1.00
O590   O     0.82835   0.59616   0.58585   0.00000  Uiso   1.00
O591   O     0.80082   0.70047   0.55674   0.00000  Uiso   1.00
O592   O     0.80722   0.69372   0.48261   0.00000  Uiso   1.00
O593   O     0.90463   0.67221   0.58566   0.00000  Uiso   1.00
O594   O     0.88448   0.70794   0.54301   0.00000  Uiso   1.00
O595   O     0.79074   0.61657   0.70610   0.00000  Uiso   1.00
O596   O     0.82791   0.59654   0.66607   0.00000  Uiso   1.00
O597   O     0.80013   0.70117   0.69217   0.00000  Uiso   1.00
O598   O     0.80615   0.69448   0.76635   0.00000  Uiso   1.00
O599   O     0.90429   0.67275   0.66618   0.00000  Uiso   1.00
O600   O     0.88354   0.70880   0.70738   0.00000  Uiso   1.00
O601   O     0.83179   0.67082   0.62504   0.00000  Uiso   1.00
C602   C     0.79903   0.58649   0.55393   0.00000  Uiso   1.00
C603   C     0.79413   0.70677   0.51551   0.00000  Uiso   1.00
C604   C     0.91366   0.70064   0.55294   0.00000  Uiso   1.00
Zn605  Zn    0.82696   0.67379   0.56709   0.00000  Uiso   1.00
Zn606  Zn    0.82634   0.67440   0.68277   0.00000  Uiso   1.00
Zn607  Zn    0.85702   0.64411   0.62572   0.00000  Uiso   1.00
H608   H     0.80300   0.69751   0.45037   0.00000  Uiso   1.00
C609   C     0.79825   0.58727   0.69748   0.00000  Uiso   1.00
C610   C     0.79325   0.70754   0.73333   0.00000  Uiso   1.00
C611   C     0.91293   0.70153   0.69839   0.00000  Uiso   1.00
H612   H     0.80181   0.69829   0.79857   0.00000  Uiso   1.00
O613   O     0.70831   0.88411   0.79291   0.00000  Uiso   1.00
O614   O     0.67217   0.90406   0.83507   0.00000  Uiso   1.00
O615   O     0.70001   0.79994   0.80635   0.00000  Uiso   1.00
O616   O     0.69284   0.80576   0.73222   0.00000  Uiso   1.00
O617   O     0.59624   0.82794   0.83530   0.00000  Uiso   1.00
O618   O     0.61573   0.79126   0.79332   0.00000  Uiso   1.00
O619   O     0.70863   0.88369   0.95686   0.00000  Uiso   1.00
O620   O     0.67236   0.90387   0.91548   0.00000  Uiso   1.00
O621   O     0.70036   0.79957   0.94222   0.00000  Uiso   1.00
O622   O     0.69338   0.80484   1.01653   0.00000  Uiso   1.00
O623   O     0.59637   0.82769   0.91523   0.00000  Uiso   1.00
O624   O     0.61605   0.79081   0.95641   0.00000  Uiso   1.00
O625   O     0.66996   0.83064   0.87477   0.00000  Uiso   1.00
C626   C     0.70100   0.91338   0.80269   0.00000  Uiso   1.00
C627   C     0.70633   0.79318   0.76512   0.00000  Uiso   1.00
C628   C     0.58674   0.79886   0.80307   0.00000  Uiso   1.00
Zn629  Zn    0.67359   0.82633   0.81668   0.00000  Uiso   1.00
Zn630  Zn    0.67385   0.82601   0.93274   0.00000  Uiso   1.00
Zn631  Zn    0.64392   0.85650   0.87514   0.00000  Uiso   1.00
H632   H     0.69673   0.80160   0.69997   0.00000  Uiso   1.00
C633   C     0.70129   0.91301   0.94759   0.00000  Uiso   1.00
C634   C     0.70683   0.79252   0.98324   0.00000  Uiso   1.00
C635   C     0.58703   0.79845   0.94716   0.00000  Uiso   1.00
H636   H     0.69736   0.80048   1.04866   0.00000  Uiso   1.00
N637   N     0.71885   0.98983   0.96579   0.00000  Uiso   1.00
C638   C     0.72641   0.95808   0.97471   0.00000  Uiso   1.00
N639   N     0.75891   0.46898   1.01152   0.00000  Uiso   1.00
N640   N     0.78120   0.50937   0.53620   0.00000  Uiso   1.00
C641   C     0.77365   0.54114   0.52725   0.00000  Uiso   1.00
N642   N     0.74109   1.03019   0.49049   0.00000  Uiso   1.00
N643   N     0.73670   0.76317   0.71277   0.00000  Uiso   1.00
C644   C     0.72902   0.77089   0.75665   0.00000  Uiso   1.00
N645   N     0.74258   0.75767   0.79286   0.00000  Uiso   1.00
N646   N     0.76291   0.73761   0.78555   0.00000  Uiso   1.00
C647   C     0.77060   0.72990   0.74169   0.00000  Uiso   1.00
N648   N     0.75705   0.74312   0.70546   0.00000  Uiso   1.00
N649   N     0.49054   0.71836   0.53544   0.00000  Uiso   1.00
C650   C     0.95867   0.72559   0.52600   0.00000  Uiso   1.00
N651   N     0.96955   0.75792   0.98895   0.00000  Uiso   1.00
N652   N     1.00999   0.78034   0.96451   0.00000  Uiso   1.00
C653   C     0.54188   0.77313   0.97395   0.00000  Uiso   1.00
N654   N     0.53098   0.74074   0.51095   0.00000  Uiso   1.00
N655   N     0.75713   0.96949   0.74118   0.00000  Uiso   1.00
C656   C     0.72597   0.95862   0.77589   0.00000  Uiso   1.00
N657   N     0.71789   0.98992   0.78514   0.00000  Uiso   1.00
N658   N     0.74165   0.53256   0.75907   0.00000  Uiso   1.00
C659   C     0.77250   0.54221   0.72473   0.00000  Uiso   1.00
N660   N     0.77970   0.50998   0.71644   0.00000  Uiso   1.00
N661   N     0.73732   0.76235   0.53493   0.00000  Uiso   1.00
C662   C     0.72963   0.77021   0.99107   0.00000  Uiso   1.00
N663   N     0.74306   0.75731   0.95431   0.00000  Uiso   1.00
N664   N     0.76346   0.73727   0.96072   0.00000  Uiso   1.00
C665   C     0.77148   0.72906   0.50692   0.00000  Uiso   1.00
N666   N     0.75766   0.74237   0.54275   0.00000  Uiso   1.00
N667   N     0.50995   0.78138   0.78637   0.00000  Uiso   1.00
C668   C     0.54143   0.77372   0.77655   0.00000  Uiso   1.00
N669   N     0.53064   0.74280   0.74154   0.00000  Uiso   1.00
N670   N     0.99012   0.72015   0.71700   0.00000  Uiso   1.00
C671   C     0.95772   0.72695   0.72582   0.00000  Uiso   1.00
N672   N     0.96726   0.75751   0.76052   0.00000  Uiso   1.00
loop_
_geom_bond_atom_site_label_1
_geom_bond_atom_site_label_2
_geom_bond_distance
_geom_bond_site_symmetry_2
_ccdc_geom_bond_type
O1     C14     1.269   .     A
O1     Zn17    1.741   .     S
O2     C14     1.272   .     A
O2     Zn19    1.758   .     S
O3     C15     1.262   .     A
O3     Zn17    1.748   .     S
O4     C15     1.274   .     A
O4     H20     0.966   .     S
O5     C16     1.272   .     A
O5     Zn19    1.757   .     S
O6     C16     1.269   .     A
O6     Zn17    1.744   .     S
O7     Zn18    1.739   .     S
O7     C21     1.269   .     A
O8     Zn19    1.759   .     S
O8     C21     1.272   .     A
O9     Zn18    1.747   .     S
O9     C22     1.262   .     A
O10    C22     1.274   .     A
O10    H24     0.965   .     S
O11    Zn19    1.758   .     S
O11    C23     1.272   .     A
O12    Zn18    1.742   .     S
O12    C23     1.270   .     A
O13    Zn17    1.690   .     S
O13    Zn18    1.690   .     S
O13    Zn19    1.693   .     S
C14    C53     1.479   .     S
C15    C77     1.486   .     S
C16    C62     1.478   .     S
C21    C71     1.479   .     S
C22    C59     1.486   .     S
C23    C83     1.479   .     S
O25    C38     1.269   .     A
O25    Zn41    1.743   .     S
O26    C38     1.272   .     A
O26    Zn43    1.755   .     S
O27    C39     1.262   .     A
O27    Zn41    1.747   .     S
O28    C39     1.274   .     A
O28    H44     0.965   .     S
O29    C40     1.271   .     A
O29    Zn43    1.755   .     S
O30    C40     1.269   .     A
O30    Zn41    1.744   .     S
O31    Zn42    1.744   .     S
O31    C45     1.269   .     A
O32    Zn43    1.755   .     S
O32    C45     1.272   .     A
O33    Zn42    1.748   .     S
O33    C46     1.262   .     A
O34    C46     1.275   .     A
O34    H48     0.965   .     S
O35    Zn43    1.755   .     S
O35    C47     1.271   .     A
O36    Zn42    1.745   .     S
O36    C47     1.269   .     A
O37    Zn41    1.694   .     S
O37    Zn42    1.694   .     S
O37    Zn43    1.692   .     S
C38    C68     1.479   .     S
C39    C56     1.486   .     S
C40    C80     1.479   .     S
C45    C50     1.479   .     S
C46    C74     1.488   .     S
C47    C65     1.478   .     S
N49    C50     1.358   .     A
N49    N390    1.331   .     A
C50    N219    1.438   .     S
N51    C218    1.438   1_545 S
N51    N388    1.332   .     A
N52    C53     1.358   .     A
N52    N387    1.332   1_554 A
C53    N222    1.438   1_545 S
N54    N385    1.331   1_554 A
N54    C221    1.438   .     S
N55    C56     1.360   .     A
N55    N60     1.333   .     A
C56    N57     1.362   .     A
N57    N58     1.333   .     A
N58    C59     1.360   .     A
C59    N60     1.362   .     A
N61    N66     1.332   .     A
N61    C146    1.358   1_455 A
C62    N145    1.358   .     A
C62    N399    1.438   1_554 S
N63    N64     1.331   .     A
N63    C398    1.438   .     S
N64    C149    1.358   .     A
C65    N148    1.358   1_455 A
C65    N402    1.438   .     S
N66    C401    1.438   1_554 S
N67    C68     1.362   .     A
N67    N240    1.335   .     A
C68    N69     1.357   .     A
N69    N238    1.406   .     S
N70    C71     1.358   .     A
N70    N237    1.406   1_545 S
C71    N72     1.361   .     A
N72    N235    1.335   1_545 A
N73    N78     1.334   .     A
N73    C410    1.363   1_554 A
C74    N75     1.363   .     A
C74    N409    1.363   .     A
N75    N76     1.331   .     A
N76    C413    1.434   .     S
C77    N78     1.359   .     A
C77    N412    1.434   1_554 S
N79    C80     1.357   .     A
N79    N168    1.406   1_455 S
C80    N81     1.362   .     A
N81    N166    1.335   1_455 A
N82    C83     1.361   .     A
N82    N165    1.335   .     A
C83    N84     1.358   .     A
N84    N163    1.406   .     S
O85    C98     1.269   .     A
O85    Zn101   1.741   .     S
O86    C98     1.272   .     A
O86    Zn103   1.758   .     S
O87    C99     1.262   .     A
O87    Zn101   1.748   .     S
O88    C99     1.274   .     A
O88    H104    0.966   .     S
O89    C100    1.272   .     A
O89    Zn103   1.757   .     S
O90    C100    1.269   .     A
O90    Zn101   1.744   .     S
O91    Zn102   1.739   .     S
O91    C105    1.269   .     A
O92    Zn103   1.759   .     S
O92    C105    1.272   .     A
O93    Zn102   1.747   .     S
O93    C106    1.262   .     A
O94    C106    1.274   .     A
O94    H108    0.965   .     S
O95    Zn103   1.758   .     S
O95    C107    1.272   .     A
O96    Zn102   1.742   .     S
O96    C107    1.270   .     A
O97    Zn101   1.690   .     S
O97    Zn102   1.690   .     S
O97    Zn103   1.693   .     S
C98    C137    1.479   .     S
C99    C161    1.486   .     S
C100   C146    1.478   .     S
C105   C155    1.479   .     S
C106   C143    1.486   .     S
C107   C167    1.479   .     S
O109   C122    1.269   .     A
O109   Zn125   1.743   .     S
O110   C122    1.272   .     A
O110   Zn127   1.755   .     S
O111   C123    1.262   .     A
O111   Zn125   1.747   .     S
O112   C123    1.274   .     A
O112   H128    0.965   .     S
O113   C124    1.271   .     A
O113   Zn127   1.755   .     S
O114   C124    1.269   .     A
O114   Zn125   1.744   .     S
O115   Zn126   1.744   .     S
O115   C129    1.269   .     A
O116   Zn127   1.755   .     S
O116   C129    1.272   .     A
O117   Zn126   1.748   .     S
O117   C130    1.262   .     A
O118   C130    1.275   .     A
O118   H132    0.965   .     S
O119   Zn127   1.755   .     S
O119   C131    1.271   .     A
O120   Zn126   1.745   .     S
O120   C131    1.269   .     A
O121   Zn125   1.694   .     S
O121   Zn126   1.694   .     S
O121   Zn127   1.692   .     S
C122   C152    1.479   .     S
C123   C140    1.486   .     S
C124   C164    1.479   .     S
C129   C134    1.479   .     S
C130   C158    1.488   .     S
C131   C149    1.478   .     S
N133   C134    1.358   .     A
N133   N474    1.331   .     A
C134   N303    1.438   .     S
N135   C302    1.438   1_545 S
N135   N472    1.332   .     A
N136   C137    1.358   .     A
N136   N471    1.332   1_554 A
C137   N306    1.438   1_545 S
N138   N469    1.331   1_554 A
N138   C305    1.438   .     S
N139   C140    1.360   .     A
N139   N144    1.333   .     A
C140   N141    1.362   .     A
N141   N142    1.333   .     A
N142   C143    1.360   .     A
C143   N144    1.362   .     A
N145   N150    1.332   .     A
C146   N61     1.358   1_655 A
C146   N483    1.438   1_554 S
N147   N148    1.331   .     A
N147   C482    1.438   .     S
N148   C65     1.358   1_655 A
C149   N486    1.438   .     S
N150   C485    1.438   1_554 S
N151   C152    1.362   .     A
N151   N324    1.335   .     A
C152   N153    1.357   .     A
N153   N322    1.406   .     S
N154   C155    1.358   .     A
N154   N321    1.406   1_545 S
C155   N156    1.361   .     A
N156   N319    1.335   1_545 A
N157   N162    1.334   .     A
N157   C494    1.363   1_554 A
C158   N159    1.363   .     A
C158   N493    1.363   .     A
N159   N160    1.331   .     A
N160   C497    1.434   .     S
C161   N162    1.359   .     A
C161   N496    1.434   1_554 S
N163   C164    1.357   .     A
C164   N165    1.362   .     A
N166   C167    1.361   .     A
N166   N81     1.335   1_655 A
C167   N168    1.358   .     A
N168   N79     1.406   1_655 S
O169   C182    1.269   .     A
O169   Zn185   1.741   .     S
O170   C182    1.272   .     A
O170   Zn187   1.758   .     S
O171   C183    1.262   .     A
O171   Zn185   1.748   .     S
O172   C183    1.274   .     A
O172   H188    0.966   .     S
O173   C184    1.272   .     A
O173   Zn187   1.757   .     S
O174   C184    1.269   .     A
O174   Zn185   1.744   .     S
O175   Zn186   1.739   .     S
O175   C189    1.269   .     A
O176   Zn187   1.759   .     S
O176   C189    1.272   .     A
O177   Zn186   1.747   .     S
O177   C190    1.262   .     A
O178   C190    1.274   .     A
O178   H192    0.965   .     S
O179   Zn187   1.758   .     S
O179   C191    1.272   .     A
O180   Zn186   1.742   .     S
O180   C191    1.270   .     A
O181   Zn185   1.690   .     S
O181   Zn186   1.690   .     S
O181   Zn187   1.693   .     S
C182   C221    1.479   .     S
C183   C245    1.486   .     S
C184   C230    1.478   .     S
C189   C239    1.479   .     S
C190   C227    1.486   .     S
C191   C251    1.479   .     S
O193   C206    1.269   .     A
O193   Zn209   1.743   .     S
O194   C206    1.272   .     A
O194   Zn211   1.755   .     S
O195   C207    1.262   .     A
O195   Zn209   1.747   .     S
O196   C207    1.274   .     A
O196   H212    0.965   .     S
O197   C208    1.271   .     A
O197   Zn211   1.755   .     S
O198   C208    1.269   .     A
O198   Zn209   1.744   .     S
O199   Zn210   1.744   .     S
O199   C213    1.269   .     A
O200   Zn211   1.755   .     S
O200   C213    1.272   .     A
O201   Zn210   1.748   .     S
O201   C214    1.262   .     A
O202   C214    1.275   .     A
O202   H216    0.965   .     S
O203   Zn211   1.755   .     S
O203   C215    1.271   .     A
O204   Zn210   1.745   .     S
O204   C215    1.269   .     A
O205   Zn209   1.694   .     S
O205   Zn210   1.694   .     S
O205   Zn211   1.692   .     S
C206   C236    1.479   .     S
C207   C224    1.486   .     S
C208   C248    1.479   .     S
C213   C218    1.479   .     S
C214   C242    1.488   .     S
C215   C233    1.478   .     S
N217   C218    1.358   .     A
N217   N558    1.331   .     A
C218   N51     1.438   1_565 S
N219   N556    1.332   .     A
N220   C221    1.358   .     A
N220   N555    1.332   1_554 A
N222   N553    1.331   1_554 A
N222   C53     1.438   1_565 S
N223   C224    1.360   .     A
N223   N228    1.333   .     A
C224   N225    1.362   .     A
N225   N226    1.333   .     A
N226   C227    1.360   .     A
C227   N228    1.362   .     A
N229   N234    1.332   .     A
N229   C314    1.358   1_455 A
C230   N313    1.358   .     A
C230   N567    1.438   1_554 S
N231   N232    1.331   .     A
N231   C566    1.438   .     S
N232   C317    1.358   .     A
C233   N316    1.358   1_455 A
C233   N570    1.438   .     S
N234   C569    1.438   1_554 S
N235   C236    1.362   .     A
N235   N72     1.335   1_565 A
C236   N237    1.357   .     A
N237   N70     1.406   1_565 S
N238   C239    1.358   .     A
C239   N240    1.361   .     A
N241   N246    1.334   .     A
N241   C578    1.363   1_554 A
C242   N243    1.363   .     A
C242   N577    1.363   .     A
N243   N244    1.331   .     A
N244   C581    1.434   .     S
C245   N246    1.359   .     A
C245   N580    1.434   1_554 S
N247   C248    1.357   .     A
N247   N336    1.406   1_455 S
C248   N249    1.362   .     A
N249   N334    1.335   1_455 A
N250   C251    1.361   .     A
N250   N333    1.335   .     A
C251   N252    1.358   .     A
N252   N331    1.406   .     S
O253   C266    1.269   .     A
O253   Zn269   1.741   .     S
O254   C266    1.272   .     A
O254   Zn271   1.758   .     S
O255   C267    1.262   .     A
O255   Zn269   1.748   .     S
O256   C267    1.274   .     A
O256   H272    0.966   .     S
O257   C268    1.272   .     A
O257   Zn271   1.757   .     S
O258   C268    1.269   .     A
O258   Zn269   1.744   .     S
O259   Zn270   1.739   .     S
O259   C273    1.269   .     A
O260   Zn271   1.759   .     S
O260   C273    1.272   .     A
O261   Zn270   1.747   .     S
O261   C274    1.262   .     A
O262   C274    1.274   .     A
O262   H276    0.965   .     S
O263   Zn271   1.758   .     S
O263   C275    1.272   .     A
O264   Zn270   1.742   .     S
O264   C275    1.270   .     A
O265   Zn269   1.690   .     S
O265   Zn270   1.690   .     S
O265   Zn271   1.693   .     S
C266   C305    1.479   .     S
C267   C329    1.486   .     S
C268   C314    1.478   .     S
C273   C323    1.479   .     S
C274   C311    1.486   .     S
C275   C335    1.479   .     S
O277   C290    1.269   .     A
O277   Zn293   1.743   .     S
O278   C290    1.272   .     A
O278   Zn295   1.755   .     S
O279   C291    1.262   .     A
O279   Zn293   1.747   .     S
O280   C291    1.274   .     A
O280   H296    0.965   .     S
O281   C292    1.271   .     A
O281   Zn295   1.755   .     S
O282   C292    1.269   .     A
O282   Zn293   1.744   .     S
O283   Zn294   1.744   .     S
O283   C297    1.269   .     A
O284   Zn295   1.755   .     S
O284   C297    1.272   .     A
O285   Zn294   1.748   .     S
O285   C298    1.262   .     A
O286   C298    1.275   .     A
O286   H300    0.965   .     S
O287   Zn295   1.755   .     S
O287   C299    1.271   .     A
O288   Zn294   1.745   .     S
O288   C299    1.269   .     A
O289   Zn293   1.694   .     S
O289   Zn294   1.694   .     S
O289   Zn295   1.692   .     S
C290   C320    1.479   .     S
C291   C308    1.486   .     S
C292   C332    1.479   .     S
C297   C302    1.479   .     S
C298   C326    1.488   .     S
C299   C317    1.478   .     S
N301   C302    1.358   .     A
N301   N642    1.331   .     A
C302   N135    1.438   1_565 S
N303   N640    1.332   .     A
N304   C305    1.358   .     A
N304   N639    1.332   1_554 A
N306   N637    1.331   1_554 A
N306   C137    1.438   1_565 S
N307   C308    1.360   .     A
N307   N312    1.333   .     A
C308   N309    1.362   .     A
N309   N310    1.333   .     A
N310   C311    1.360   .     A
C311   N312    1.362   .     A
N313   N318    1.332   .     A
C314   N229    1.358   1_655 A
C314   N651    1.438   1_554 S
N315   N316    1.331   .     A
N315   C650    1.438   .     S
N316   C233    1.358   1_655 A
C317   N654    1.438   .     S
N318   C653    1.438   1_554 S
N319   C320    1.362   .     A
N319   N156    1.335   1_565 A
C320   N321    1.357   .     A
N321   N154    1.406   1_565 S
N322   C323    1.358   .     A
C323   N324    1.361   .     A
N325   N330    1.334   .     A
N325   C662    1.363   1_554 A
C326   N327    1.363   .     A
C326   N661    1.363   .     A
N327   N328    1.331   .     A
N328   C665    1.434   .     S
C329   N330    1.359   .     A
C329   N664    1.434   1_554 S
N331   C332    1.357   .     A
C332   N333    1.362   .     A
N334   C335    1.361   .     A
N334   N249    1.335   1_655 A
C335   N336    1.358   .     A
N336   N247    1.406   1_655 S
O337   C350    1.269   .     A
O337   Zn353   1.741   .     S
O338   C350    1.272   .     A
O338   Zn355   1.758   .     S
O339   C351    1.262   .     A
O339   Zn353   1.748   .     S
O340   C351    1.274   .     A
O340   H356    0.966   .     S
O341   C352    1.272   .     A
O341   Zn355   1.757   .     S
O342   C352    1.269   .     A
O342   Zn353   1.744   .     S
O343   Zn354   1.739   .     S
O343   C357    1.269   .     A
O344   Zn355   1.759   .     S
O344   C357    1.272   .     A
O345   Zn354   1.747   .     S
O345   C358    1.262   .     A
O346   C358    1.274   .     A
O346   H360    0.965   .     S
O347   Zn355   1.758   .     S
O347   C359    1.272   .     A
O348   Zn354   1.742   .     S
O348   C359    1.270   .     A
O349   Zn353   1.690   .     S
O349   Zn354   1.690   .     S
O349   Zn355   1.693   .     S
C350   C389    1.479   .     S
C351   C413    1.486   .     S
C352   C398    1.478   .     S
C357   C407    1.479   .     S
C358   C395    1.486   .     S
C359   C419    1.479   .     S
O361   C374    1.269   .     A
O361   Zn377   1.743   .     S
O362   C374    1.272   .     A
O362   Zn379   1.755   .     S
O363   C375    1.262   .     A
O363   Zn377   1.747   .     S
O364   C375    1.274   .     A
O364   H380    0.965   .     S
O365   C376    1.271   .     A
O365   Zn379   1.755   .     S
O366   C376    1.269   .     A
O366   Zn377   1.744   .     S
O367   Zn378   1.744   .     S
O367   C381    1.269   .     A
O368   Zn379   1.755   .     S
O368   C381    1.272   .     A
O369   Zn378   1.748   .     S
O369   C382    1.262   .     A
O370   C382    1.275   .     A
O370   H384    0.965   .     S
O371   Zn379   1.755   .     S
O371   C383    1.271   .     A
O372   Zn378   1.745   .     S
O372   C383    1.269   .     A
O373   Zn377   1.694   .     S
O373   Zn378   1.694   .     S
O373   Zn379   1.692   .     S
C374   C404    1.479   .     S
C375   C392    1.486   .     S
C376   C416    1.479   .     S
C381   C386    1.479   .     S
C382   C410    1.488   .     S
C383   C401    1.478   .     S
N385   C386    1.358   .     A
N385   N54     1.331   1_556 A
C386   N555    1.438   .     S
N387   C554    1.438   1_545 S
N387   N52     1.332   1_556 A
N388   C389    1.358   .     A
C389   N558    1.438   1_545 S
N390   C557    1.438   .     S
N391   C392    1.360   .     A
N391   N396    1.333   .     A
C392   N393    1.362   .     A
N393   N394    1.333   .     A
N394   C395    1.360   .     A
C395   N396    1.362   .     A
N397   N402    1.332   .     A
N397   C482    1.358   1_455 A
C398   N481    1.358   .     A
N399   N400    1.331   .     A
N399   C62     1.438   1_556 S
N400   C485    1.358   .     A
C401   N484    1.358   1_455 A
C401   N66     1.438   1_556 S
N403   C404    1.362   .     A
N403   N576    1.335   .     A
C404   N405    1.357   .     A
N405   N574    1.406   .     S
N406   C407    1.358   .     A
N406   N573    1.406   1_545 S
C407   N408    1.361   .     A
N408   N571    1.335   1_545 A
N409   N414    1.334   .     A
C410   N411    1.363   .     A
C410   N73     1.363   1_556 A
N411   N412    1.331   .     A
N412   C77     1.434   1_556 S
C413   N414    1.359   .     A
N415   C416    1.357   .     A
N415   N504    1.406   1_455 S
C416   N417    1.362   .     A
N417   N502    1.335   1_455 A
N418   C419    1.361   .     A
N418   N501    1.335   .     A
C419   N420    1.358   .     A
N420   N499    1.406   .     S
O421   C434    1.269   .     A
O421   Zn437   1.741   .     S
O422   C434    1.272   .     A
O422   Zn439   1.758   .     S
O423   C435    1.262   .     A
O423   Zn437   1.748   .     S
O424   C435    1.274   .     A
O424   H440    0.966   .     S
O425   C436    1.272   .     A
O425   Zn439   1.757   .     S
O426   C436    1.269   .     A
O426   Zn437   1.744   .     S
O427   Zn438   1.739   .     S
O427   C441    1.269   .     A
O428   Zn439   1.759   .     S
O428   C441    1.272   .     A
O429   Zn438   1.747   .     S
O429   C442    1.262   .     A
O430   C442    1.274   .     A
O430   H444    0.965   .     S
O431   Zn439   1.758   .     S
O431   C443    1.272   .     A
O432   Zn438   1.742   .     S
O432   C443    1.270   .     A
O433   Zn437   1.690   .     S
O433   Zn438   1.690   .     S
O433   Zn439   1.693   .     S
C434   C473    1.479   .     S
C435   C497    1.486   .     S
C436   C482    1.478   .     S
C441   C491    1.479   .     S
C442   C479    1.486   .     S
C443   C503    1.479   .     S
O445   C458    1.269   .     A
O445   Zn461   1.743   .     S
O446   C458    1.272   .     A
O446   Zn463   1.755   .     S
O447   C459    1.262   .     A
O447   Zn461   1.747   .     S
O448   C459    1.274   .     A
O448   H464    0.965   .     S
O449   C460    1.271   .     A
O449   Zn463   1.755   .     S
O450   C460    1.269   .     A
O450   Zn461   1.744   .     S
O451   Zn462   1.744   .     S
O451   C465    1.269   .     A
O452   Zn463   1.755   .     S
O452   C465    1.272   .     A
O453   Zn462   1.748   .     S
O453   C466    1.262   .     A
O454   C466    1.275   .     A
O454   H468    0.965   .     S
O455   Zn463   1.755   .     S
O455   C467    1.271   .     A
O456   Zn462   1.745   .     S
O456   C467    1.269   .     A
O457   Zn461   1.694   .     S
O457   Zn462   1.694   .     S
O457   Zn463   1.692   .     S
C458   C488    1.479   .     S
C459   C476    1.486   .     S
C460   C500    1.479   .     S
C465   C470    1.479   .     S
C466   C494    1.488   .     S
C467   C485    1.478   .     S
N469   C470    1.358   .     A
N469   N138    1.331   1_556 A
C470   N639    1.438   .     S
N471   C638    1.438   1_545 S
N471   N136    1.332   1_556 A
N472   C473    1.358   .     A
C473   N642    1.438   1_545 S
N474   C641    1.438   .     S
N475   C476    1.360   .     A
N475   N480    1.333   .     A
C476   N477    1.362   .     A
N477   N478    1.333   .     A
N478   C479    1.360   .     A
C479   N480    1.362   .     A
N481   N486    1.332   .     A
C482   N397    1.358   1_655 A
N483   N484    1.331   .     A
N483   C146    1.438   1_556 S
N484   C401    1.358   1_655 A
C485   N150    1.438   1_556 S
N487   C488    1.362   .     A
N487   N660    1.335   .     A
C488   N489    1.357   .     A
N489   N658    1.406   .     S
N490   C491    1.358   .     A
N490   N657    1.406   1_545 S
C491   N492    1.361   .     A
N492   N655    1.335   1_545 A
N493   N498    1.334   .     A
C494   N495    1.363   .     A
C494   N157    1.363   1_556 A
N495   N496    1.331   .     A
N496   C161    1.434   1_556 S
C497   N498    1.359   .     A
N499   C500    1.357   .     A
C500   N501    1.362   .     A
N502   C503    1.361   .     A
N502   N417    1.335   1_655 A
C503   N504    1.358   .     A
N504   N415    1.406   1_655 S
O505   C518    1.269   .     A
O505   Zn521   1.741   .     S
O506   C518    1.272   .     A
O506   Zn523   1.758   .     S
O507   C519    1.262   .     A
O507   Zn521   1.748   .     S
O508   C519    1.274   .     A
O508   H524    0.966   .     S
O509   C520    1.272   .     A
O509   Zn523   1.757   .     S
O510   C520    1.269   .     A
O510   Zn521   1.744   .     S
O511   Zn522   1.739   .     S
O511   C525    1.269   .     A
O512   Zn523   1.759   .     S
O512   C525    1.272   .     A
O513   Zn522   1.747   .     S
O513   C526    1.262   .     A
O514   C526    1.274   .     A
O514   H528    0.965   .     S
O515   Zn523   1.758   .     S
O515   C527    1.272   .     A
O516   Zn522   1.742   .     S
O516   C527    1.270   .     A
O517   Zn521   1.690   .     S
O517   Zn522   1.690   .     S
O517   Zn523   1.693   .     S
C518   C557    1.479   .     S
C519   C581    1.486   .     S
C520   C566    1.478   .     S
C525   C575    1.479   .     S
C526   C563    1.486   .     S
C527   C587    1.479   .     S
O529   C542    1.269   .     A
O529   Zn545   1.743   .     S
O530   C542    1.272   .     A
O530   Zn547   1.755   .     S
O531   C543    1.262   .     A
O531   Zn545   1.747   .     S
O532   C543    1.274   .     A
O532   H548    0.965   .     S
O533   C544    1.271   .     A
O533   Zn547   1.755   .     S
O534   C544    1.269   .     A
O534   Zn545   1.744   .     S
O535   Zn546   1.744   .     S
O535   C549    1.269   .     A
O536   Zn547   1.755   .     S
O536   C549    1.272   .     A
O537   Zn546   1.748   .     S
O537   C550    1.262   .     A
O538   C550    1.275   .     A
O538   H552    0.965   .     S
O539   Zn547   1.755   .     S
O539   C551    1.271   .     A
O540   Zn546   1.745   .     S
O540   C551    1.269   .     A
O541   Zn545   1.694   .     S
O541   Zn546   1.694   .     S
O541   Zn547   1.692   .     S
C542   C572    1.479   .     S
C543   C560    1.486   .     S
C544   C584    1.479   .     S
C549   C554    1.479   .     S
C550   C578    1.488   .     S
C551   C569    1.478   .     S
N553   C554    1.358   .     A
N553   N222    1.331   1_556 A
C554   N387    1.438   1_565 S
N555   N220    1.332   1_556 A
N556   C557    1.358   .     A
N558   C389    1.438   1_565 S
N559   C560    1.360   .     A
N559   N564    1.333   .     A
C560   N561    1.362   .     A
N561   N562    1.333   .     A
N562   C563    1.360   .     A
C563   N564    1.362   .     A
N565   N570    1.332   .     A
N565   C650    1.358   1_455 A
C566   N649    1.358   .     A
N567   N568    1.331   .     A
N567   C230    1.438   1_556 S
N568   C653    1.358   .     A
C569   N652    1.358   1_455 A
C569   N234    1.438   1_556 S
N571   C572    1.362   .     A
N571   N408    1.335   1_565 A
C572   N573    1.357   .     A
N573   N406    1.406   1_565 S
N574   C575    1.358   .     A
C575   N576    1.361   .     A
N577   N582    1.334   .     A
C578   N579    1.363   .     A
C578   N241    1.363   1_556 A
N579   N580    1.331   .     A
N580   C245    1.434   1_556 S
C581   N582    1.359   .     A
N583   C584    1.357   .     A
N583   N672    1.406   1_455 S
C584   N585    1.362   .     A
N585   N670    1.335   1_455 A
N586   C587    1.361   .     A
N586   N669    1.335   .     A
C587   N588    1.358   .     A
N588   N667    1.406   .     S
O589   C602    1.269   .     A
O589   Zn605   1.741   .     S
O590   C602    1.272   .     A
O590   Zn607   1.758   .     S
O591   C603    1.262   .     A
O591   Zn605   1.748   .     S
O592   C603    1.274   .     A
O592   H608    0.966   .     S
O593   C604    1.272   .     A
O593   Zn607   1.757   .     S
O594   C604    1.269   .     A
O594   Zn605   1.744   .     S
O595   Zn606   1.739   .     S
O595   C609    1.269   .     A
O596   Zn607   1.759   .     S
O596   C609    1.272   .     A
O597   Zn606   1.747   .     S
O597   C610    1.262   .     A
O598   C610    1.274   .     A
O598   H612    0.965   .     S
O599   Zn607   1.758   .     S
O599   C611    1.272   .     A
O600   Zn606   1.742   .     S
O600   C611    1.270   .     A
O601   Zn605   1.690   .     S
O601   Zn606   1.690   .     S
O601   Zn607   1.693   .     S
C602   C641    1.479   .     S
C603   C665    1.486   .     S
C604   C650    1.478   .     S
C609   C659    1.479   .     S
C610   C647    1.486   .     S
C611   C671    1.479   .     S
O613   C626    1.269   .     A
O613   Zn629   1.743   .     S
O614   C626    1.272   .     A
O614   Zn631   1.755   .     S
O615   C627    1.262   .     A
O615   Zn629   1.747   .     S
O616   C627    1.274   .     A
O616   H632    0.965   .     S
O617   C628    1.271   .     A
O617   Zn631   1.755   .     S
O618   C628    1.269   .     A
O618   Zn629   1.744   .     S
O619   Zn630   1.744   .     S
O619   C633    1.269   .     A
O620   Zn631   1.755   .     S
O620   C633    1.272   .     A
O621   Zn630   1.748   .     S
O621   C634    1.262   .     A
O622   C634    1.275   .     A
O622   H636    0.965   .     S
O623   Zn631   1.755   .     S
O623   C635    1.271   .     A
O624   Zn630   1.745   .     S
O624   C635    1.269   .     A
O625   Zn629   1.694   .     S
O625   Zn630   1.694   .     S
O625   Zn631   1.692   .     S
C626   C656    1.479   .     S
C627   C644    1.486   .     S
C628   C668    1.479   .     S
C633   C638    1.479   .     S
C634   C662    1.488   .     S
C635   C653    1.478   .     S
N637   C638    1.358   .     A
N637   N306    1.331   1_556 A
C638   N471    1.438   1_565 S
N639   N304    1.332   1_556 A
N640   C641    1.358   .     A
N642   C473    1.438   1_565 S
N643   C644    1.360   .     A
N643   N648    1.333   .     A
C644   N645    1.362   .     A
N645   N646    1.333   .     A
N646   C647    1.360   .     A
C647   N648    1.362   .     A
N649   N654    1.332   .     A
C650   N565    1.358   1_655 A
N651   N652    1.331   .     A
N651   C314    1.438   1_556 S
N652   C569    1.358   1_655 A
C653   N318    1.438   1_556 S
N655   C656    1.362   .     A
N655   N492    1.335   1_565 A
C656   N657    1.357   .     A
N657   N490    1.406   1_565 S
N658   C659    1.358   .     A
C659   N660    1.361   .     A
N661   N666    1.334   .     A
C662   N663    1.363   .     A
C662   N325    1.363   1_556 A
N663   N664    1.331   .     A
N664   C329    1.434   1_556 S
C665   N666    1.359   .     A
N667   C668    1.357   .     A
C668   N669    1.362   .     A
N670   C671    1.361   .     A
N670   N585    1.335   1_655 A
C671   N672    1.358   .     A
N672   N583    1.406   1_655 S
